@<TRIPOS>MOLECULE
*****
   59    64     1     0     0
SMALL
No Charge or Current Charge


@<TRIPOS>ATOM
      1 C            1.2130     0.6810    -0.1100 ca         1 UNL       0.189200
      2 C1           1.3110    -0.6310    -0.5900 ca         1 UNL       0.189200
      3 C2           0.1610    -1.4170    -0.7160 ca         1 UNL       0.097700
      4 C3          -1.0910    -0.8610    -0.4170 ca         1 UNL      -0.039300
      5 C4          -1.1930     0.4730    -0.0110 ca         1 UNL      -0.039300
      6 C5          -0.0400     1.2500     0.1450 ca         1 UNL       0.097700
      7 C6          -0.1600     2.6180     0.5600 cg         1 UNL       0.103000
      8 C7           0.2440    -2.7960    -1.0980 cg         1 UNL       0.103000
      9 N            0.2820    -3.9210    -1.3810 n1         1 UNL      -0.190700
     10 N1          -0.2890     3.7250     0.8860 n1         1 UNL      -0.190700
     11 O            2.3310     1.4280     0.1700 os         1 UNL      -0.447300
     12 C8           3.5260     0.7680     0.0730 ca         1 UNL       0.171000
     13 C9           3.6340    -0.4750    -0.5550 ca         1 UNL       0.171000
     14 O1           2.5230    -1.1730    -0.9560 os         1 UNL      -0.447300
     15 C10          4.6390     1.3640     0.6540 ca         1 UNL      -0.011300
     16 C11          5.8640     0.7090     0.5630 ca         1 UNL      -0.029400
     17 C12          6.0030    -0.4520    -0.2010 ca         1 UNL      -0.034000
     18 C13          4.8820    -1.0690    -0.7480 ca         1 UNL      -0.011700
     19 C14          7.1250     1.0310     1.3230 c5         1 UNL       0.023000
     20 C15          8.1730     0.0800     0.6850 c5         1 UNL      -0.030100
     21 C16          7.4460    -0.8750    -0.3100 c5         1 UNL      -0.008300
     22 C17          7.6620    -2.3440     0.0660 c3         1 UNL      -0.055700
     23 C18          7.9550    -0.6220    -1.7390 c3         1 UNL      -0.055700
     24 C19          6.9060     0.7290     2.8390 c5         1 UNL      -0.030100
     25 C20          7.2120     2.0100     3.6620 c5         1 UNL      -0.008300
     26 C21          7.5440     3.0300     2.6020 ca         1 UNL      -0.034000
     27 C22          7.5160     2.4810     1.3120 ca         1 UNL      -0.029500
     28 C23          5.9870     2.4320     4.4850 c3         1 UNL      -0.055700
     29 C24          8.4100     1.7720     4.5910 c3         1 UNL      -0.055700
     30 C25          7.8470     4.3750     2.8000 ca         1 UNL      -0.012500
     31 C26          8.1250     5.1570     1.6840 ca         1 UNL       0.158500
     32 C27          8.1060     4.6040     0.4000 ca         1 UNL       0.158500
     33 C28          7.8010     3.2650     0.1980 ca         1 UNL      -0.012200
     34 O2           8.4210     6.4890     1.7940 oh         1 UNL      -0.503300
     35 O3           8.3840     5.3920    -0.6810 oh         1 UNL      -0.503300
     36 H           -1.9960    -1.4640    -0.5000 ha         1 UNL       0.063200
     37 H1          -2.1750     0.8960     0.1980 ha         1 UNL       0.063200
     38 H2           4.5400     2.2950     1.2050 ha         1 UNL       0.065900
     39 H3           4.9650    -2.0060    -1.2890 ha         1 UNL       0.065800
     40 H4           8.7120    -0.4940     1.4500 hc         1 UNL       0.028500
     41 H5           8.9590     0.6460     0.1670 hc         1 UNL       0.028500
     42 H6           7.2670    -2.5660     1.0630 hc         1 UNL       0.023800
     43 H7           8.7290    -2.5960     0.0610 hc         1 UNL       0.023800
     44 H8           7.1640    -3.0160    -0.6420 hc         1 UNL       0.023800
     45 H9           7.8190     0.4250    -2.0340 hc         1 UNL       0.023800
     46 H10          7.4200    -1.2370    -2.4720 hc         1 UNL       0.023800
     47 H11          9.0230    -0.8540    -1.8230 hc         1 UNL       0.023800
     48 H12          7.5320    -0.1070     3.1770 hc         1 UNL       0.028500
     49 H13          5.8790     0.3900     3.0360 hc         1 UNL       0.028500
     50 H14          5.1230     2.6390     3.8420 hc         1 UNL       0.023800
     51 H15          6.1850     3.3390     5.0670 hc         1 UNL       0.023800
     52 H16          5.6980     1.6440     5.1900 hc         1 UNL       0.023800
     53 H17          9.3010     1.4720     4.0260 hc         1 UNL       0.023800
     54 H18          8.1920     0.9800     5.3160 hc         1 UNL       0.023800
     55 H19          8.6690     2.6760     5.1540 hc         1 UNL       0.023800
     56 H20          7.8610     4.7930     3.8000 ha         1 UNL       0.065800
     57 H21          7.7750     2.8560    -0.8060 ha         1 UNL       0.065800
     58 H22          8.3530     6.7340     2.7330 ho         1 UNL       0.292300
     59 H23          8.5520     6.2760    -0.2980 ho         1 UNL       0.292300
@<TRIPOS>BOND
     1     1     2 ar  
     2     2     3 ar  
     3     3     4 ar  
     4     4     5 ar  
     5     5     6 ar  
     6     6     1 ar  
     7     6     7 1   
     8     3     8 1   
     9     8     9 3   
    10     7    10 3   
    11     1    11 1   
    12    11    12 1   
    13    12    13 ar  
    14    13    14 1   
    15    14     2 1   
    16    12    15 ar  
    17    15    16 ar  
    18    16    17 ar  
    19    17    18 ar  
    20    18    13 ar  
    21    16    19 1   
    22    19    20 1   
    23    20    21 1   
    24    21    17 1   
    25    21    22 1   
    26    21    23 1   
    27    19    24 1   
    28    24    25 1   
    29    25    26 1   
    30    26    27 ar  
    31    27    19 1   
    32    25    28 1   
    33    25    29 1   
    34    26    30 ar  
    35    30    31 ar  
    36    31    32 ar  
    37    32    33 ar  
    38    33    27 ar  
    39    31    34 1   
    40    32    35 1   
    41     4    36 1   
    42     5    37 1   
    43    15    38 1   
    44    18    39 1   
    45    20    40 1   
    46    20    41 1   
    47    22    42 1   
    48    22    43 1   
    49    22    44 1   
    50    23    45 1   
    51    23    46 1   
    52    23    47 1   
    53    24    48 1   
    54    24    49 1   
    55    28    50 1   
    56    28    51 1   
    57    28    52 1   
    58    29    53 1   
    59    29    54 1   
    60    29    55 1   
    61    30    56 1   
    62    33    57 1   
    63    34    58 1   
    64    35    59 1   
@<TRIPOS>SUBSTRUCTURE
     1 UNL         1 TEMP              0 ****  ****    0 ROOT
