@<TRIPOS>MOLECULE 
***** 
55   60    0    0
SMALL 
No Charge or Current Charge 

@<TRIPOS>ATOM
1 ca 1.213 0.681 -0.11 ca  1 UNL 0.20212727272727274
2 ca 1.311 -0.631 -0.59 ca  1 UNL 0.20212727272727274
3 ca 0.161 -1.417 -0.716 ca  1 UNL 0.11062727272727273
4 Lca -1.091 -0.861 -0.417 Lca  1 UNL -0.026372727272727273
5 ca -1.193 0.473 -0.011 ca  1 UNL -0.026372727272727273
6 ca -0.04 1.25 0.145 ca  1 UNL 0.11062727272727273
7 cg -0.16 2.618 0.56 cg  1 UNL 0.11592727272727273
8 cg 0.244 -2.796 -1.098 cg  1 UNL 0.11592727272727273
9 n1 0.282 -3.921 -1.381 n1  1 UNL -0.17777272727272728
10 n1 -0.289 3.725 0.886 n1  1 UNL -0.17777272727272728
11 os 2.331 1.428 0.17 os  1 UNL -0.43437272727272724
12 ca 3.526 0.768 0.073 ca  1 UNL 0.18392727272727274
13 ca 3.634 -0.475 -0.555 ca  1 UNL 0.18392727272727274
14 os 2.523 -1.173 -0.956 os  1 UNL -0.43437272727272724
15 ca 4.639 1.364 0.654 ca  1 UNL 0.001627272727272729
16 ca 5.864 0.709 0.563 ca  1 UNL -0.01647272727272727
17 ca 6.003 -0.452 -0.201 ca  1 UNL -0.021072727272727274
18 ca 4.882 -1.069 -0.748 ca  1 UNL 0.0012272727272727279
19 c5 7.125 1.031 1.323 c5  1 UNL 0.035927272727272724
20 c5 8.173 0.08 0.685 c5  1 UNL -0.01717272727272727
21 c5 7.446 -0.875 -0.31 c5  1 UNL 0.004627272727272728
22 c3 7.662 -2.344 0.066 c3  1 UNL -0.04277272727272727
23 c3 7.955 -0.622 -1.739 c3  1 UNL -0.04277272727272727
24 c5 6.906 0.729 2.839 c5  1 UNL -0.01717272727272727
25 c5 7.212 2.01 3.662 c5  1 UNL 0.004627272727272728
26 ca 7.544 3.03 2.602 ca  1 UNL -0.021072727272727274
27 ca 7.516 2.481 1.312 ca  1 UNL -0.01657272727272727
28 c3 5.987 2.432 4.485 c3  1 UNL -0.04277272727272727
29 c3 8.41 1.772 4.591 c3  1 UNL -0.04277272727272727
30 ca 7.847 4.375 2.8 ca  1 UNL 0.0004272727272727275
31 ca 8.125 5.157 1.684 ca  1 UNL 0.17142727272727273
32 ca 8.106 4.604 0.4 ca  1 UNL 0.17142727272727273
33 ca 7.801 3.265 0.198 ca  1 UNL 0.0007272727272727274
34 oh 8.421 6.489 1.794 oh  1 UNL -0.49037272727272724
35 Loh 8.384 5.392 -0.681 Loh  1 UNL -0.49037272727272724
36 ha 4.54 2.295 1.205 ha  1 UNL 0.07882727272727273
37 ha 4.965 -2.006 -1.289 ha  1 UNL 0.07872727272727273
38 hc 8.712 -0.494 1.45 hc  1 UNL 0.04142727272727273
39 hc 8.959 0.646 0.167 hc  1 UNL 0.04142727272727273
40 hc 7.267 -2.566 1.063 hc  1 UNL 0.03672727272727273
41 hc 8.729 -2.596 0.061 hc  1 UNL 0.03672727272727273
42 hc 7.164 -3.016 -0.642 hc  1 UNL 0.03672727272727273
43 hc 7.819 0.425 -2.034 hc  1 UNL 0.03672727272727273
44 hc 7.42 -1.237 -2.472 hc  1 UNL 0.03672727272727273
45 hc 9.023 -0.854 -1.823 hc  1 UNL 0.03672727272727273
46 hc 7.532 -0.107 3.177 hc  1 UNL 0.04142727272727273
47 hc 5.879 0.39 3.036 hc  1 UNL 0.04142727272727273
48 hc 5.123 2.639 3.842 hc  1 UNL 0.03672727272727273
49 hc 6.185 3.339 5.067 hc  1 UNL 0.03672727272727273
50 hc 5.698 1.644 5.19 hc  1 UNL 0.03672727272727273
51 hc 9.301 1.472 4.026 hc  1 UNL 0.03672727272727273
52 hc 8.192 0.98 5.316 hc  1 UNL 0.03672727272727273
53 hc 8.669 2.676 5.154 hc  1 UNL 0.03672727272727273
54 ha 7.861 4.793 3.8 ha  1 UNL 0.07872727272727273
55 ha 7.775 2.856 -0.806 ha  1 UNL 0.07872727272727273
@<TRIPOS>BOND
1 1  2 ar
2 2  3 ar
3 3  4 ar
4 4  5 ar
5 5  6 ar
6 6  1 ar
7 6  7 1 
8 3  8 1 
9 8  9 3 
10 7 10 3 
11 1 11 1 
12 11 12 1 
13 12 13 ar
14 13 14 1 
15 14  2 1 
16 12 15 ar
17 15 16 ar
18 16 17 ar
19 17 18 ar
20 18 13 ar
21 16 19 1 
22 19 20 1 
23 20 21 1 
24 21 17 1 
25 21 22 1 
26 21 23 1 
27 19 24 1 
28 24 25 1 
29 25 26 1 
30 26 27 ar
31 27 19 1 
32 25 28 1 
33 25 29 1 
34 26 30 ar
35 30 31 ar
36 31 32 ar
37 32 33 ar
38 33 27 ar
39 31 34 1 
40 32 35 1 
43 15 36 1 
44 18 37 1 
45 20 38 1 
46 20 39 1 
47 22 40 1 
48 22 41 1 
49 22 42 1 
50 23 43 1 
51 23 44 1 
52 23 45 1 
53 24 46 1 
54 24 47 1 
55 28 48 1 
56 28 49 1 
57 28 50 1 
58 29 51 1 
59 29 52 1 
60 29 53 1 
61 30 54 1 
62 33 55 1 
@<TRIPOS>SUBSTRUCTURE
1 UNL         1 TEMP              0 ****  ****    0 ROOT