@<TRIPOS>MOLECULE 
***** 
35   40    0    0
SMALL 
No Charge or Current Charge 

@<TRIPOS>ATOM
1 ca0 1.213 0.681 -0.11 ca0  1 UNL 0.1892
2 ca0 1.311 -0.631 -0.59 ca0  1 UNL 0.1892
3 ca0 0.161 -1.417 -0.716 ca0  1 UNL 0.0977
4 Lca1 -1.091 -0.861 -0.417 Lca1  1 UNL 0.023900000000000005
5 ca1 -1.193 0.473 -0.011 ca1  1 UNL 0.023900000000000005
6 ca0 -0.04 1.25 0.145 ca0  1 UNL 0.0977
7 cg0 -0.16 2.618 0.56 cg0  1 UNL 0.103
8 cg0 0.244 -2.796 -1.098 cg0  1 UNL 0.103
9 n10 0.282 -3.921 -1.381 n10  1 UNL -0.1907
10 n10 -0.289 3.725 0.886 n10  1 UNL -0.1907
11 os0 2.331 1.428 0.17 os0  1 UNL -0.4473
12 ca0 3.526 0.768 0.073 ca0  1 UNL 0.171
13 ca0 3.634 -0.475 -0.555 ca0  1 UNL 0.171
14 os0 2.523 -1.173 -0.956 os0  1 UNL -0.4473
15 ca1 4.639 1.364 0.654 ca1  1 UNL 0.0546
16 ca0 5.864 0.709 0.563 ca0  1 UNL -0.0294
17 ca0 6.003 -0.452 -0.201 ca0  1 UNL -0.034
18 ca1 4.882 -1.069 -0.748 ca1  1 UNL 0.054099999999999995
19 c50 7.125 1.031 1.323 c50  1 UNL 0.023
20 c52 8.173 0.08 0.685 c52  1 UNL 0.026900000000000004
21 c50 7.446 -0.875 -0.31 c50  1 UNL -0.0083
22 c33 7.662 -2.344 0.066 c33  1 UNL 0.015700000000000006
23 c33 7.955 -0.622 -1.739 c33  1 UNL 0.015700000000000006
24 c52 6.906 0.729 2.839 c52  1 UNL 0.026900000000000004
25 c50 7.212 2.01 3.662 c50  1 UNL -0.0083
26 ca0 7.544 3.03 2.602 ca0  1 UNL -0.034
27 ca0 7.516 2.481 1.312 ca0  1 UNL -0.0295
28 c33 5.987 2.432 4.485 c33  1 UNL 0.015700000000000006
29 c33 8.41 1.772 4.591 c33  1 UNL 0.015700000000000006
30 ca1 7.847 4.375 2.8 ca1  1 UNL 0.0533
31 ca0 8.125 5.157 1.684 ca0  1 UNL 0.1585
32 ca0 8.106 4.604 0.4 ca0  1 UNL 0.1585
33 ca1 7.801 3.265 0.198 ca1  1 UNL 0.053599999999999995
34 oh1 8.421 6.489 1.794 oh1  1 UNL -0.21099999999999997
35 Loh1 8.384 5.392 -0.681 Loh1  1 UNL -0.21099999999999997
@<TRIPOS>BOND
1 1  2 ar
2 2  3 ar
3 3  4 ar
4 4  5 ar
5 5  6 ar
6 6  1 ar
7 6  7 1 
8 3  8 1 
9 8  9 3 
10 7 10 3 
11 1 11 1 
12 11 12 1 
13 12 13 ar
14 13 14 1 
15 14  2 1 
16 12 15 ar
17 15 16 ar
18 16 17 ar
19 17 18 ar
20 18 13 ar
21 16 19 1 
22 19 20 1 
23 20 21 1 
24 21 17 1 
25 21 22 1 
26 21 23 1 
27 19 24 1 
28 24 25 1 
29 25 26 1 
30 26 27 ar
31 27 19 1 
32 25 28 1 
33 25 29 1 
34 26 30 ar
35 30 31 ar
36 31 32 ar
37 32 33 ar
38 33 27 ar
39 31 34 1 
40 32 35 1 
@<TRIPOS>SUBSTRUCTURE
1 UNL         1 TEMP              0 ****  ****    0 ROOT