@<TRIPOS>MOLECULE
*****
 59 64 0 0 0
SMALL
GASTEIGER

@<TRIPOS>ATOM
      1 C           1.2127    0.6808   -0.1098 C.ar    1  UNL1        0.1892
      2 C           1.3111   -0.6311   -0.5896 C.ar    1  UNL1        0.1892
      3 C           0.1608   -1.4170   -0.7159 C.ar    1  UNL1        0.0977
      4 C          -1.0912   -0.8614   -0.4168 C.ar    1  UNL1       -0.0393
      5 C          -1.1930    0.4730   -0.0109 C.ar    1  UNL1       -0.0393
      6 C          -0.0396    1.2505    0.1452 C.ar    1  UNL1        0.0977
      7 C          -0.1601    2.6180    0.5601 C.1     1  UNL1        0.1030
      8 C           0.2443   -2.7960   -1.0979 C.1     1  UNL1        0.1030
      9 N           0.2819   -3.9214   -1.3812 N.1     1  UNL1       -0.1907
     10 N          -0.2890    3.7248    0.8858 N.1     1  UNL1       -0.1907
     11 O           2.3308    1.4283    0.1699 O.3     1  UNL1       -0.4473
     12 C           3.5265    0.7676    0.0730 C.ar    1  UNL1        0.1710
     13 C           3.6341   -0.4747   -0.5553 C.ar    1  UNL1        0.1710
     14 O           2.5229   -1.1728   -0.9560 O.3     1  UNL1       -0.4473
     15 C           4.6392    1.3641    0.6543 C.ar    1  UNL1       -0.0113
     16 C           5.8637    0.7094    0.5633 C.ar    1  UNL1       -0.0294
     17 C           6.0029   -0.4518   -0.2007 C.ar    1  UNL1       -0.0340
     18 C           4.8824   -1.0686   -0.7482 C.ar    1  UNL1       -0.0117
     19 C           7.1250    1.0309    1.3234 C.3     1  UNL1        0.0230
     20 C           8.1734    0.0797    0.6852 C.3     1  UNL1       -0.0301
     21 C           7.4464   -0.8751   -0.3100 C.3     1  UNL1       -0.0083
     22 C           7.6619   -2.3436    0.0657 C.3     1  UNL1       -0.0557
     23 C           7.9552   -0.6224   -1.7393 C.3     1  UNL1       -0.0557
     24 C           6.9061    0.7286    2.8389 C.3     1  UNL1       -0.0301
     25 C           7.2121    2.0101    3.6622 C.3     1  UNL1       -0.0083
     26 C           7.5436    3.0298    2.6016 C.ar    1  UNL1       -0.0340
     27 C           7.5159    2.4806    1.3123 C.ar    1  UNL1       -0.0295
     28 C           5.9869    2.4316    4.4849 C.3     1  UNL1       -0.0557
     29 C           8.4100    1.7724    4.5911 C.3     1  UNL1       -0.0557
     30 C           7.8473    4.3755    2.7998 C.ar    1  UNL1       -0.0125
     31 C           8.1249    5.1569    1.6836 C.ar    1  UNL1        0.1585
     32 C           8.1058    4.6036    0.4000 C.ar    1  UNL1        0.1585
     33 C           7.8007    3.2651    0.1981 C.ar    1  UNL1       -0.0122
     34 O           8.4208    6.4887    1.7939 O.3     1  UNL1       -0.5033
     35 O           8.3839    5.3921   -0.6808 O.3     1  UNL1       -0.5033
     36 H          -1.9956   -1.4637   -0.4998 H       1  UNL1        0.0632
     37 H          -2.1751    0.8963    0.1978 H       1  UNL1        0.0632
     38 H           4.5400    2.2947    1.2050 H       1  UNL1        0.0659
     39 H           4.9647   -2.0063   -1.2888 H       1  UNL1        0.0658
     40 H           8.7120   -0.4936    1.4504 H       1  UNL1        0.0285
     41 H           8.9585    0.6461    0.1668 H       1  UNL1        0.0285
     42 H           7.2668   -2.5655    1.0632 H       1  UNL1        0.0238
     43 H           8.7286   -2.5956    0.0611 H       1  UNL1        0.0238
     44 H           7.1636   -3.0160   -0.6424 H       1  UNL1        0.0238
     45 H           7.8192    0.4255   -2.0343 H       1  UNL1        0.0238
     46 H           7.4203   -1.2369   -2.4723 H       1  UNL1        0.0238
     47 H           9.0231   -0.8541   -1.8232 H       1  UNL1        0.0238
     48 H           7.5323   -0.1067    3.1770 H       1  UNL1        0.0285
     49 H           5.8791    0.3899    3.0360 H       1  UNL1        0.0285
     50 H           5.1233    2.6389    3.8421 H       1  UNL1        0.0238
     51 H           6.1849    3.3390    5.0668 H       1  UNL1        0.0238
     52 H           5.6976    1.6437    5.1896 H       1  UNL1        0.0238
     53 H           9.3007    1.4722    4.0263 H       1  UNL1        0.0238
     54 H           8.1916    0.9801    5.3162 H       1  UNL1        0.0238
     55 H           8.6688    2.6760    5.1544 H       1  UNL1        0.0238
     56 H           7.8611    4.7928    3.8002 H       1  UNL1        0.0658
     57 H           7.7751    2.8557   -0.8062 H       1  UNL1        0.0658
     58 H           8.3527    6.7341    2.7326 H       1  UNL1        0.2923
     59 H           8.5516    6.2762   -0.2981 H       1  UNL1        0.2923
@<TRIPOS>BOND
     1     1     2   ar
     2     2     3   ar
     3     3     4   ar
     4     4     5   ar
     5     5     6   ar
     6     6     1   ar
     7     6     7    1
     8     3     8    1
     9     8     9    3
    10     7    10    3
    11     1    11    1
    12    11    12    1
    13    12    13   ar
    14    13    14    1
    15    14     2    1
    16    12    15   ar
    17    15    16   ar
    18    16    17   ar
    19    17    18   ar
    20    18    13   ar
    21    16    19    1
    22    19    20    1
    23    20    21    1
    24    21    17    1
    25    21    22    1
    26    21    23    1
    27    19    24    1
    28    24    25    1
    29    25    26    1
    30    26    27   ar
    31    27    19    1
    32    25    28    1
    33    25    29    1
    34    26    30   ar
    35    30    31   ar
    36    31    32   ar
    37    32    33   ar
    38    33    27   ar
    39    31    34    1
    40    32    35    1
    41     4    36    1
    42     5    37    1
    43    15    38    1
    44    18    39    1
    45    20    40    1
    46    20    41    1
    47    22    42    1
    48    22    43    1
    49    22    44    1
    50    23    45    1
    51    23    46    1
    52    23    47    1
    53    24    48    1
    54    24    49    1
    55    28    50    1
    56    28    51    1
    57    28    52    1
    58    29    53    1
    59    29    54    1
    60    29    55    1
    61    30    56    1
    62    33    57    1
    63    34    58    1
    64    35    59    1
